<?xml version="1.0" encoding="UTF-8"?>

<configuration xmlns:xsi="http://www.w3.org/2001/XMLSchema-instance" xsi:noNamespaceSchemaLocation="http://sumo.dlr.de/xsd/sumoConfiguration.xsd">

    <input>
        <net-file value="traffic.net.xml"/>
        <route-files value="traffic.rou.xml"/>
<gui-settings-file value="file.settings.xml"/>
<additional-files value="traffic.add.xml"/>

    </input>

    <time>
        <begin value="0"/>
<end value="300"/>
        <step-length value="0.4"/>
    </time>
</configuration>
